Version 4
SHEET 1 1380 680
WIRE 352 0 96 0
WIRE 624 0 432 0
WIRE 624 96 624 0
WIRE 96 112 96 0
FLAG 96 192 0
FLAG 624 160 0
SYMBOL voltage 96 96 R0
WINDOW 123 0 0 Left 0
WINDOW 39 0 0 Left 0
SYMATTR InstName V1
SYMATTR Value PWL file="F:\source\gect-pump-sensor\GECT ECE Pump Pressure Sensor Module\dataLogs\filelive.log.pwl"
SYMBOL cap 608 96 R0
SYMATTR InstName C1
SYMATTR Value 10µ
SYMBOL res 448 -16 R90
WINDOW 0 0 56 VBottom 2
WINDOW 3 32 56 VTop 2
SYMATTR InstName R1
SYMATTR Value 56k
TEXT 62 216 Left 2 !.tran 0 562 0 0.1
